#	Name:			STRUCTURE # 1
#	Creating user name:	eduffy
#	Creation time:		Fri Feb 12 12:48:20 1999

#	Modifying user name:	eduffy
#	Modification time:	Fri Feb 12 12:49:45 1999

@<TRIPOS>MOLECULE
  Zoloft (sertraline)
   37    39     1     2     0
SMALL
MMFF94_CHARGES


@<TRIPOS>ATOM
      1 C1         -0.7724   -2.4854    1.8207 C.ar      1 <1>        -0.1500 
      2 C2          0.5273   -2.0353    1.6216 C.ar      1 <1>        -0.1500 
      3 C3          0.7643   -0.9304    0.8039 C.ar      1 <1>        -0.1500 
      4 C4         -0.2961   -0.2449    0.1796 C.ar      1 <1>        -0.1435 
      5 C5         -1.6114   -0.7199    0.3644 C.ar      1 <1>        -0.1435 
      6 C6         -1.8342   -1.8340    1.1964 C.ar      1 <1>        -0.1500 
      7 C7         -2.8076   -0.0445   -0.2912 C.3       1 <1>         0.4135 
      8 C8         -2.3630    0.6580   -1.5846 C.3       1 <1>         0.0000 
      9 C9         -1.2368    1.6464   -1.3041 C.3       1 <1>         0.0000 
     10 C10         0.0100    0.9331   -0.7438 C.3       1 <1>         0.2870 
     11 N11        -3.4200    0.8867    0.6710 N.3       1 <1>        -0.9000 
     12 C12        -4.7772    1.2630    0.2986 C.3       1 <1>         0.2700 
     13 C13         0.9483    1.9709   -0.1327 C.ar      1 <1>        -0.1435 
     14 C14         2.1323    2.3309   -0.7961 C.ar      1 <1>        -0.1500 
     15 C15         2.9970    3.2855   -0.2475 C.ar      1 <1>         0.1770 
     16 C16         2.6828    3.8936    0.9720 C.ar      1 <1>         0.1770 
     17 C17         1.5048    3.5456    1.6370 C.ar      1 <1>        -0.1500 
     18 C18         0.6435    2.5928    1.0885 C.ar      1 <1>        -0.1500 
     19 CL19        4.4345    3.6656   -1.1291 Cl        1 <1>        -0.1770 
     20 CL20        3.7028    5.0782    1.7082 Cl        1 <1>        -0.1770 
     21 H21        -0.9591   -3.3457    2.4578 H         1 <1>         0.1500 
     22 H22         1.3597   -2.5442    2.1004 H         1 <1>         0.1500 
     23 H23         1.7919   -0.6036    0.6561 H         1 <1>         0.1500 
     24 H24        -2.8455   -2.2020    1.3569 H         1 <1>         0.1500 
     25 H25        -3.5262   -0.8301   -0.5622 H         1 <1>         0.0000 
     26 H26        -2.0161   -0.0894   -2.3110 H         1 <1>         0.0000 
     27 H27        -3.2014    1.1779   -2.0608 H         1 <1>         0.0000 
     28 H28        -1.5998    2.4198   -0.6154 H         1 <1>         0.0000 
     29 H29        -0.9690    2.1750   -2.2282 H         1 <1>         0.0000 
     30 H30         0.5170    0.4771   -1.6076 H         1 <1>         0.0000 
     31 H31        -3.4505    0.4333    1.5843 H         1 <1>         0.3600 
     32 H32        -5.1981    1.9070    1.0774 H         1 <1>         0.0000 
     33 H33        -4.8026    1.8317   -0.6350 H         1 <1>         0.0000 
     34 H34        -5.4270    0.3868    0.2050 H         1 <1>         0.0000 
     35 H35         2.3843    1.8649   -1.7466 H         1 <1>         0.1500 
     36 H36         1.2484    4.0123    2.5851 H         1 <1>         0.1500 
     37 H37        -0.2719    2.3333    1.6205 H         1 <1>         0.1500 
@<TRIPOS>BOND
     1    1    2 ar   
     2    1    6 ar   
     3    6    5 ar   
     4    5    4 ar   
     5    4    3 ar   
     6    2    3 ar   
     7    5    7 1    
     8    7    8 1    
     9    8    9 1    
    10    9   10 1    
    11    4   10 1    
    12    7   11 1    
    13   11   12 1    
    14   13   14 ar   
    15   13   18 ar   
    16   18   17 ar   
    17   17   16 ar   
    18   15   16 ar   
    19   14   15 ar   
    20   10   13 1    
    21   15   19 1    
    22   16   20 1    
    23    1   21 1    
    24    2   22 1    
    25    3   23 1    
    26    6   24 1    
    27    7   25 1    
    28    8   26 1    
    29    8   27 1    
    30    9   28 1    
    31    9   29 1    
    32   10   30 1    
    33   11   31 1    
    34   12   32 1    
    35   12   33 1    
    36   12   34 1    
    37   14   35 1    
    38   17   36 1    
    39   18   37 1    
@<TRIPOS>SUBSTRUCTURE
     1 ****        1 TEMP              0 ****  ****    0 ROOT 
@<TRIPOS>NORMAL
@<TRIPOS>ALT_TYPE
MMFF94_ALT_TYPE_SET 
MMFF94 1 CB 2 CB 3 CB 4 CB 5 CB 6 CB 7 CR 8 CR 9 CR 10 CR 11 NR 12 CR \
13 CB 14 CB 15 CB 16 CB 17 CB 18 CB 19 CL 20 CL 21 HC \
22 HC 23 HC 24 HC 25 HC 26 HC 27 HC 28 HC 29 HC 30 HC \
31 HNR 32 HC 33 HC 34 HC 35 HC 36 HC 37 HC 
@<TRIPOS>FF_PBC
FORCE_FIELD_SETUP_FEATURE Force Field Setup information
v1.0  0 0.000000 0.000000 0.000000 0.000000 0.000000 0.000000 NONE 0 0 0 0 1 0 0 0 0 0 0 0 0

