X1098633-9
  -AMTI-   619 2 0163D
 
 78109  0  0  0  0  0  0  0  0  1 V2000
    1.7343   -0.4719    1.0555 C   0  0  0  0  0  0  0  0  0  0  0  0
    1.8785    0.0245   -0.4179 C   0  0  0  0  0  0  0  0  0  0  0  0
    0.0913    1.0562   -2.3514 C   0  0  0  0  0  0  0  0  0  0  0  0
   -1.1363    1.4700   -2.7579 C   0  0  0  0  0  0  0  0  0  0  0  0
   -3.7418    1.7613   -2.0009 C   0  0  0  0  0  0  0  0  0  0  0  0
   -4.6028    1.5707   -0.9756 C   0  0  0  0  0  0  0  0  0  0  0  0
   -4.7994    0.6743    1.5874 C   0  0  0  0  0  0  0  0  0  0  0  0
   -4.0959    0.1459    2.6136 C   0  0  0  0  0  0  0  0  0  0  0  0
   -1.6070   -0.6736    3.3714 C   0  0  0  0  0  0  0  0  0  0  0  0
   -0.3170   -0.8016    2.9678 C   0  0  0  0  0  0  0  0  0  0  0  0
   -5.1054    0.3206   -0.7245 C   0  0  0  0  0  0  0  0  0  0  0  0
   -5.2014   -0.1248    0.5491 C   0  0  0  0  0  0  0  0  0  0  0  0
   -3.7869   -1.1879    2.6167 C   0  0  0  0  0  0  0  0  0  0  0  0
   -2.5524   -1.5917    2.9966 C   0  0  0  0  0  0  0  0  0  0  0  0
    0.0417   -1.8744    2.1905 C   0  0  0  0  0  0  0  0  0  0  0  0
    0.9577   -1.7711    1.2035 C   0  0  0  0  0  0  0  0  0  0  0  0
    1.1628   -0.8576   -1.4282 C   0  0  0  0  0  0  0  0  0  0  0  0
    0.3911   -0.2825   -2.3746 C   0  0  0  0  0  0  0  0  0  0  0  0
   -2.0813    0.5662   -3.1679 C   0  0  0  0  0  0  0  0  0  0  0  0
   -3.3736    0.7062   -2.7904 C   0  0  0  0  0  0  0  0  0  0  0  0
   -4.7462   -0.7212   -1.5067 C   0  0  0  0  0  0  0  0  0  0  0  0
   -3.8763   -0.5266   -2.5481 C   0  0  0  0  0  0  0  0  0  0  0  0
   -4.1935   -1.9794    1.5977 C   0  0  0  0  0  0  0  0  0  0  0  0
   -4.9032   -1.4444    0.5542 C   0  0  0  0  0  0  0  0  0  0  0  0
   -0.9026   -2.7656    1.8149 C   0  0  0  0  0  0  0  0  0  0  0  0
   -2.2019   -2.6346    2.2190 C   0  0  0  0  0  0  0  0  0  0  0  0
    0.5813   -2.0332   -1.1225 C   0  0  0  0  0  0  0  0  0  0  0  0
    0.4829   -2.4807    0.1627 C   0  0  0  0  0  0  0  0  0  0  0  0
   -1.7920   -0.7493   -3.1683 C   0  0  0  0  0  0  0  0  0  0  0  0
   -0.5551   -1.1664   -2.7626 C   0  0  0  0  0  0  0  0  0  0  0  0
    1.1169    0.6933    1.7932 C   0  0  0  0  0  0  0  0  0  0  0  0
    0.1807    0.4414    2.7600 C   0  0  0  0  0  0  0  0  0  0  0  0
    0.4951    1.8693   -1.3440 C   0  0  0  0  0  0  0  0  0  0  0  0
    1.2738    1.4125   -0.3126 C   0  0  0  0  0  0  0  0  0  0  0  0
   -2.8154    2.6640   -1.6103 C   0  0  0  0  0  0  0  0  0  0  0  0
   -1.5077    2.5154   -1.9937 C   0  0  0  0  0  0  0  0  0  0  0  0
   -4.3065    1.9078    1.3392 C   0  0  0  0  0  0  0  0  0  0  0  0
   -4.2071    2.3593    0.0492 C   0  0  0  0  0  0  0  0  0  0  0  0
   -1.9230    0.6370    3.3842 C   0  0  0  0  0  0  0  0  0  0  0  0
   -3.1712    1.0522    2.9996 C   0  0  0  0  0  0  0  0  0  0  0  0
   -0.5092    2.7471   -1.1191 C   0  0  0  0  0  0  0  0  0  0  0  0
   -0.6285   -3.1415    0.5532 C   0  0  0  0  0  0  0  0  0  0  0  0
   -3.3046    2.1446    2.2159 C   0  0  0  0  0  0  0  0  0  0  0  0
   -4.6250   -1.8134   -0.7174 C   0  0  0  0  0  0  0  0  0  0  0  0
   -0.4372   -2.2551   -1.9826 C   0  0  0  0  0  0  0  0  0  0  0  0
   -3.1061    3.0393   -0.3451 C   0  0  0  0  0  0  0  0  0  0  0  0
    0.9192    1.7362    0.9552 C   0  0  0  0  0  0  0  0  0  0  0  0
   -2.8977   -1.4277   -2.7872 C   0  0  0  0  0  0  0  0  0  0  0  0
   -3.2133   -2.8774    1.3547 C   0  0  0  0  0  0  0  0  0  0  0  0
   -0.8262    1.3156    2.9915 C   0  0  0  0  0  0  0  0  0  0  0  0
   -3.6338   -2.7274   -0.9612 C   0  0  0  0  0  0  0  0  0  0  0  0
   -1.6477   -3.3876   -0.3255 C   0  0  0  0  0  0  0  0  0  0  0  0
   -0.1116    2.6092    1.1798 C   0  0  0  0  0  0  0  0  0  0  0  0
   -2.0929    3.2786    0.5437 C   0  0  0  0  0  0  0  0  0  0  0  0
   -2.1918    2.8361    1.8166 C   0  0  0  0  0  0  0  0  0  0  0  0
   -1.5523   -2.9442   -1.5937 C   0  0  0  0  0  0  0  0  0  0  0  0
   -2.7775   -2.5352   -1.9905 C   0  0  0  0  0  0  0  0  0  0  0  0
   -2.9334   -3.2559    0.0686 C   0  0  0  0  0  0  0  0  0  0  0  0
   -0.9646    2.4224    2.2049 C   0  0  0  0  0  0  0  0  0  0  0  0
   -0.8060    3.1350    0.1547 C   0  0  0  0  0  0  0  0  0  0  0  0
    3.0846   -0.5417    0.3553 C   0  0  0  0  0  0  0  0  0  0  0  0
    4.2080    0.4022    0.7637 C   0  0  0  0  0  0  0  0  0  0  0  0
    4.0990    1.6019    0.8913 O   0  0  0  0  0  0  0  0  0  0  0  0
    5.3714   -0.2483    0.5020 O   0  0  0  0  0  0  0  0  0  0  0  0
    6.3904    0.2907   -0.3555 C   0  0  0  0  0  0  0  0  0  0  0  0
    5.9898    1.4898   -1.2400 C   0  0  0  0  0  0  0  0  0  0  0  0
    6.7816   -0.8630   -1.2856 C   0  0  0  0  0  0  0  0  0  0  0  0
    7.5915    0.6492    0.5236 C   0  0  0  0  0  0  0  0  0  0  0  0
    3.3676   -1.5576   -0.0023 H   0  0  0  0  0  0  0  0  0  0  0  0
    6.7631    1.6723   -2.0197 H   0  0  0  0  0  0  0  0  0  0  0  0
    5.0225    1.2936   -1.7527 H   0  0  0  0  0  0  0  0  0  0  0  0
    5.8970    2.4186   -0.6366 H   0  0  0  0  0  0  0  0  0  0  0  0
    7.6135   -0.5601   -1.9590 H   0  0  0  0  0  0  0  0  0  0  0  0
    7.1156   -1.7458   -0.6965 H   0  0  0  0  0  0  0  0  0  0  0  0
    5.9147   -1.1681   -1.9136 H   0  0  0  0  0  0  0  0  0  0  0  0
    8.4516    0.9545   -0.1123 H   0  0  0  0  0  0  0  0  0  0  0  0
    7.3405    1.4879    1.2097 H   0  0  0  0  0  0  0  0  0  0  0  0
    7.9048   -0.2248    1.1365 H   0  0  0  0  0  0  0  0  0  0  0  0
  1 16  1
  1 31  1
  1 61  1
  1  2  1
  2 17  1
  2 34  1
  2 61  1
  3 18  1
  3 33  1
  3  4  2
  4 19  1
  4 36  1
  5 20  1
  5  6  2
  5 35  1
  6 11  1
  6 38  1
  7 12  1
  7 37  1
  7  8  2
  8 13  1
  8 40  1
  9 10  2
  9 14  1
  9 39  1
 10 32  1
 10 15  1
 11 12  2
 11 21  1
 12 24  1
 13 14  2
 13 23  1
 14 26  1
 15 16  2
 15 25  1
 16 28  1
 17 18  2
 17 27  1
 18 30  1
 19 20  2
 19 29  1
 20 22  1
 21 44  2
 21 22  1
 22 48  2
 23 49  1
 23 24  2
 24 44  1
 25 26  2
 25 42  1
 26 49  1
 27 28  2
 27 45  1
 28 42  1
 29 30  2
 29 48  1
 30 45  1
 31 32  1
 31 47  2
 32 50  2
 33 34  2
 33 41  1
 34 47  1
 35 36  2
 35 46  1
 36 41  1
 37 43  1
 37 38  2
 38 46  1
 39 50  1
 39 40  2
 40 43  1
 41 60  2
 42 52  2
 43 55  2
 44 51  1
 45 56  2
 46 54  2
 47 53  1
 48 57  1
 49 58  2
 50 59  1
 51 58  1
 51 57  2
 52 56  1
 52 58  1
 53 59  2
 53 60  1
 54 60  1
 54 55  1
 55 59  1
 56 57  1
 61 62  1
 62 63  2
 62 64  1
 64 65  1
 65 66  1
 65 67  1
 65 68  1
 61 69  1
 66 70  1
 66 71  1
 66 72  1
 67 73  1
 67 74  1
 67 75  1
 68 76  1
 68 77  1
 68 78  1
M  END
>  <Mol_ID> (36,400)
36411

>  <Formul > (36,400)
C66H10O2

>  <MolWeight> (36,400)
834.8038

>  <CsNum> (36,400)
98633

>  <CAS> (36,400)
150493-29-1

>  <ACX_ID> (36,400)
X1098633-9

$$$$
