#	Name:			<unnamed>
#	Creating user name:	zhouh
#	Creation time:		Fri Feb  2 12:06:18 1996

#	Modifying user name:	zhouh
#	Modification time:	Fri Feb  2 12:10:24 1996

@<TRIPOS>MOLECULE
****
   23    24     1     1     0
SMALL
AMPAC_CHARGES


@<TRIPOS>ATOM
      1 C           2.0484    1.3999    0.3036 C.ar      1 PHENYL      0.1400
      2 C           1.8401    2.7553    0.5768 C.ar      1 PHENYL     -0.0373
      3 C           1.2503    3.1386    1.7827 C.ar      1 PHENYL      0.1625
      4 C           0.8817    2.1646    2.7095 C.ar      1 PHENYL     -0.5493
      5 C           1.0624    0.8087    2.4323 C.ar      1 PHENYL      0.1672
      6 C           1.6638    0.4221    1.2291 C.ar      1 PHENYL     -0.4294
      7 C7          0.8258    4.8989    3.2297 C.2       1 PHENYL      0.2202
      8 N8          1.0219    4.4390    2.0568 N.2       1 PHENYL     -0.2729
      9 N9          0.9103    4.1687    4.3436 N.3       1 PHENYL     -0.5473
     10 S10         0.1372    2.7376    4.2029 S.o2      1 PHENYL      1.7781
     11 O11        -1.2703    2.9834    3.9598 O.2       1 PHENYL     -0.6593
     12 O12         0.5486    1.8783    5.2956 O.2       1 PHENYL     -0.6771
     13 O13         3.3860   -1.5021    0.7621 O.2       1 PHENYL     -0.7216
     14 S14         1.9538   -1.2916    0.8385 S.o2      1 PHENYL      1.7490
     15 O15         1.1261   -1.6379   -0.2992 O.2       1 PHENYL     -0.6837
     16 N16         1.3938   -2.1060    2.1306 N.3       1 PHENYL     -0.5344
     17 Cl17        2.7953    0.9363   -1.2121 Cl        1 PHENYL     -0.0335
     18 H18         2.1350    3.5094   -0.1447 H         1 PHENYL      0.1105
     19 H19         0.7313    0.0746    3.1565 H         1 PHENYL      0.1021
     20 H20         0.5834    5.9575    3.3241 H         1 PHENYL      0.1386
     21 H21         1.9495    3.9950    4.5824 H         1 PHENYL      0.2131
     22 H22         2.0973   -2.0228    2.9461 H         1 PHENYL      0.1732
     23 H23         1.2768   -3.1476    1.8708 H         1 PHENYL      0.1914
@<TRIPOS>BOND
     1    1    2 ar   
     2    1    6 ar   
     3    6    5 ar   
     4    5    4 ar   
     5    4    3 ar   
     6    3    2 ar   
     7    7    8 2    
     8   10    9 1    
     9    4   10 1    
    10   10   11 2    
    11   10   12 2    
    12    9    7 1    
    13    8    3 1    
    14   14   13 2    
    15   14   15 2    
    16    6   14 1    
    17   14   16 1    
    18    1   17 1    
    19    2   18 1    
    20    5   19 1    
    21    7   20 1    
    22    9   21 1    
    23   16   22 1    
    24   16   23 1    
@<TRIPOS>SUBSTRUCTURE
     1 PHENYL      1 PERM              0 ****  ****    0 ROOT 
@<TRIPOS>NORMAL
@<TRIPOS>FF_PBC
FORCE_FIELD_SETUP_FEATURE Force Field Setup information
v1.0  0 0.000000 0.000000 0.000000 0.000000 0.000000 0.000000 NONE 0 0 0 0 1 0 0 0 0 0 0 0 0
