#	Name:			CNF_3708
#	Creating user name:	arthur
#	Creation time:		Thu Jun 13 08:57:46 1996

#	Modifying user name:	arthur
#	Modification time:	Thu Jun 13 09:01:27 1996

@<TRIPOS>MOLECULE
CNF_3708
   40    41     2     9     0
SMALL
AMPAC_CHARGES


@<TRIPOS>ATOM
      1 C1_____    -0.8233   -0.0709   -5.4863 C.3       2 PHENYL      0.2350 
      2 O2_____    -1.8961    0.7020   -4.9114 O.3       2 PHENYL     -0.3359 
      3 C3_____    -3.0966    0.7151   -5.7128 C.3       2 PHENYL      0.1561 
      4 C4_____    -4.1459    1.6205   -5.0165 C.3       2 PHENYL      0.1250 
      5 N5_____    -5.3478    1.9004   -5.8486 N.3       2 PHENYL     -0.4045 
      6 C6_____    -6.2539    2.8981   -5.2275 C.3       2 PHENYL      0.1713 
      7 C7_____    -6.0659    0.6980   -6.3385 C.3       2 PHENYL      0.1671 
      8 C          -1.2331   -1.5449   -5.6025 C.ar      2 PHENYL     -0.1302 
      9 C          -1.1930   -2.2185   -6.8287 C.ar      2 PHENYL     -0.0345 
     10 C          -1.5728   -3.5617   -6.9051 C.ar      2 PHENYL     -0.0669 
     11 C          -1.9946   -4.2373   -5.7565 C.ar      2 PHENYL     -0.0465 
     12 C          -2.0364   -3.5673   -4.5306 C.ar      2 PHENYL     -0.0673 
     13 C          -1.6576   -2.2240   -4.4556 C.ar      2 PHENYL     -0.0192 
     14 C           0.4327   -0.0185   -4.6052 C.ar      1 PHENYL     -0.0947 
     15 C           1.5886   -0.6852   -5.0282 C.ar      1 PHENYL     -0.0395 
     16 C           2.7467   -0.6647   -4.2458 C.ar      1 PHENYL     -0.0660 
     17 C           2.7581    0.0294   -3.0332 C.ar      1 PHENYL     -0.0502 
     18 C           1.6083    0.6988   -2.6059 C.ar      1 PHENYL     -0.0703 
     19 C           0.4503    0.6752   -3.3889 C.ar      1 PHENYL     -0.0184 
     20 H20____    -0.5493    0.3586   -6.4635 H         2 PHENYL      0.0134 
     21 H21____    -3.4972   -0.3055   -5.8121 H         2 PHENYL     -0.0031 
     22 H22____    -2.8899    1.1244   -6.7149 H         2 PHENYL      0.0082 
     23 H23____    -3.6363    2.5728   -4.7969 H         2 PHENYL      0.0234 
     24 H24____    -4.4422    1.1632   -4.0582 H         2 PHENYL     -0.0101 
     25 H25____    -6.7323    2.4739   -4.3311 H         2 PHENYL     -0.0335 
     26 H26____    -7.0376    3.2031   -5.9377 H         2 PHENYL      0.0011 
     27 H27____    -5.7028    3.8060   -4.9384 H         2 PHENYL      0.0027 
     28 H28____    -5.4550    0.1694   -7.0843 H         2 PHENYL     -0.0013 
     29 H29____    -7.0122    0.9659   -6.8328 H         2 PHENYL      0.0012 
     30 H30____    -6.2895    0.0153   -5.5044 H         2 PHENYL     -0.0307 
     31 H31____    -0.8676   -1.7047   -7.7276 H         2 PHENYL      0.0585 
     32 H32____    -1.5402   -4.0811   -7.8580 H         2 PHENYL      0.0606 
     33 H33____    -2.2893   -5.2806   -5.8164 H         2 PHENYL      0.0598 
     34 H34____    -2.3629   -4.0899   -3.6368 H         2 PHENYL      0.0615 
     35 H35____    -1.6940   -1.7055   -3.5024 H         2 PHENYL      0.0686 
     36 H36____     1.5900   -1.2248   -5.9702 H         1 PHENYL      0.0571 
     37 H37____     3.6374   -1.1881   -4.5800 H         1 PHENYL      0.0594 
     38 H38____     3.6573    0.0486   -2.4249 H         1 PHENYL      0.0584 
     39 H39____     1.6146    1.2381   -1.6635 H         1 PHENYL      0.0598 
     40 H40____    -0.4320    1.2011   -3.0394 H         1 PHENYL      0.0748 
@<TRIPOS>BOND
     1    1    2 1    
     2    2    3 1    
     3    3    4 1    
     4    4    5 1    
     5    5    6 1    
     6    5    7 1    
     7    8    9 ar   
     8    8   13 ar   
     9   13   12 ar   
    10   12   11 ar   
    11   11   10 ar   
    12   10    9 ar   
    13    8    1 1    
    14   14   15 ar   
    15   14   19 ar   
    16   19   18 ar   
    17   18   17 ar   
    18   17   16 ar   
    19   16   15 ar   
    20    1   14 1    
    21    1   20 1    
    22    3   21 1    
    23    3   22 1    
    24    4   23 1    
    25    4   24 1    
    26    6   25 1    
    27    6   26 1    
    28    6   27 1    
    29    7   28 1    
    30    7   29 1    
    31    7   30 1    
    32    9   31 1    
    33   10   32 1    
    34   11   33 1    
    35   12   34 1    
    36   13   35 1    
    37   15   36 1    
    38   16   37 1    
    39   17   38 1    
    40   18   39 1    
    41   19   40 1    
@<TRIPOS>SUBSTRUCTURE
     1 PHENYL     14 PERM              0 ****  ****    1  
     2 PHENYL      8 PERM              0 ****  ****    1 ROOT 
@<TRIPOS>ROTATABLE_BOND
    1    20     2  1 1     0  1  30    0 359
    2     1     3  2 1     0  1  30    0 359
    3     2     4  3 1     0  1  30    0 359
    4     3     6  4 1     0  1  30    0 359
   13     8     1  7 1     0  1  30    0 359
   20     1    15  8 1     0  1  30    0 359
@<TRIPOS>ANCHOR_ATOM
1
@<TRIPOS>NORMAL
@<TRIPOS>FF_PBC
FORCE_FIELD_SETUP_FEATURE Force Field Setup information
v1.0  0 0.000000 0.000000 0.000000 0.000000 0.000000 0.000000 NONE 0 0 0 0 1 0 0 0 0 0 0 0 0
@<TRIPOS>SEARCH_OPTS
1 0 1 1 9.999000e+03 1 9.500000e-01 6.500000e-01 8.700000e-01 0 0 
