#       Name:                   STRUCTURE # 1
#       Creating user name:     eduffy
#       Creation time:          Fri Feb 12 13:19:49 1999

#       Modifying user name:    eduffy
#       Modification time:      Fri Feb 12 13:20:36 1999

@<TRIPOS>MOLECULE
  Viagra (sildenafil)
   63    66     1     2     0
SMALL
MMFF94_CHARGES


@<TRIPOS>ATOM
      1 C1          0.6835    2.8623   -0.5725 C.ar      1 <1>         0.0862
      2 C2          0.3157    3.7544   -1.5886 C.ar      1 <1>        -0.1500
      3 C3         -0.9195    3.6325   -2.2374 C.ar      1 <1>         0.0825
      4 C4         -1.7956    2.6142   -1.8691 C.ar      1 <1>        -0.1500
      5 C5         -1.4198    1.7186   -0.8623 C.ar      1 <1>        -0.0090
      6 C6         -0.1846    1.8270   -0.2182 C.ar      1 <1>        -0.1500
      7 C7          1.9909    2.9749    0.1332 C.2       1 <1>         0.4238
      8 N8          2.5632    1.8995    0.5969 N.2       1 <1>        -0.5750
      9 C9          3.7790    2.1394    1.2380 C.2       1 <1>         0.1250
     10 C10         4.3161    3.3816    1.3918 C.2       1 <1>        -0.2366
     11 C11         3.6844    4.5537    0.9114 C.2       1 <1>         0.7150
     12 N12         2.5030    4.2637    0.2648 N.am      1 <1>        -0.4900
     13 O13         4.0966    5.7002    1.0414 O.2       1 <1>        -0.5700
     14 N14         5.4865    3.1975    2.0585 N.pl3     1 <1>         0.3140
     15 N15         5.7373    1.8954    2.3423 N.2       1 <1>        -0.7068
     16 C16         4.6791    1.2386    1.8293 C.2       1 <1>         0.1078
     17 C17         6.4266    4.2156    2.4611 C.3       1 <1>         0.2556
     18 C18         4.5770   -0.2443    1.9251 C.3       1 <1>         0.1810
     19 C19         5.1133   -0.9399    0.6731 C.3       1 <1>         0.0000
     20 C20         5.0039   -2.4521    0.7844 C.3       1 <1>         0.0000
     21 S21        -2.5227    0.4144   -0.3789 S.o2      1 <1>         1.4470
     22 O22        -1.7834   -0.8234   -0.4907 O.2       1 <1>        -0.6500
     23 O23        -3.7813    0.6066   -1.0681 O.2       1 <1>        -0.6500
     24 N24        -2.7837    0.7448    1.2733 N.3       1 <1>        -0.8494
     25 C25        -3.5425    2.0054    1.5563 C.3       1 <1>         0.3557
     26 C26        -3.5935    2.2649    3.0758 C.3       1 <1>         0.2700
     27 N27        -4.2127    1.1443    3.8112 N.3       1 <1>        -0.8100
     28 C28        -3.4828   -0.1060    3.5125 C.3       1 <1>         0.2700
     29 C29        -3.4198   -0.4018    2.0007 C.3       1 <1>         0.3557
     30 C30        -4.2164    1.4075    5.2491 C.3       1 <1>         0.2700
     31 O31        -1.1425    4.5725   -3.2051 O.3       1 <1>        -0.3625
     32 C32        -2.3351    4.4429   -3.9801 C.3       1 <1>         0.2800
     33 C33        -2.3333    5.5426   -5.0266 C.3       1 <1>         0.0000
     34 H1          0.9921    4.5373   -1.9220 H         1 <1>         0.1500
     35 H2         -2.7617    2.4935   -2.3498 H         1 <1>         0.1500
     36 H3          0.0911    1.1117    0.5557 H         1 <1>         0.1500
     37 H4          1.9947    5.0719   -0.0588 H         1 <1>         0.3700
     38 H5          7.2751    3.7488    2.9681 H         1 <1>         0.0000
     39 H6          5.9205    4.9032    3.1430 H         1 <1>         0.0000
     40 H7          6.7729    4.7397    1.5670 H         1 <1>         0.0000
     41 H8          3.5284   -0.5250    2.0842 H         1 <1>         0.0000
     42 H9          5.1283   -0.5945    2.8070 H         1 <1>         0.0000
     43 H10         6.1629   -0.6653    0.5112 H         1 <1>         0.0000
     44 H11         4.5586   -0.6039   -0.2115 H         1 <1>         0.0000
     45 H12         5.3921   -2.9278   -0.1217 H         1 <1>         0.0000
     46 H13         3.9614   -2.7615    0.9105 H         1 <1>         0.0000
     47 H14         5.5796   -2.8255    1.6373 H         1 <1>         0.0000
     48 H15        -4.5611    1.9292    1.1577 H         1 <1>         0.0000
     49 H16        -3.0458    2.8563    1.0801 H         1 <1>         0.0000
     50 H17        -4.1729    3.1799    3.2477 H         1 <1>         0.0000
     51 H18        -2.5740    2.4458    3.4424 H         1 <1>         0.0000
     52 H19        -3.9828   -0.9480    4.0058 H         1 <1>         0.0000
     53 H20        -2.4594   -0.0520    3.9079 H         1 <1>         0.0000
     54 H21        -4.4284   -0.5789    1.6080 H         1 <1>         0.0000
     55 H22        -2.8236   -1.3088    1.8548 H         1 <1>         0.0000
     56 H23        -4.7879    2.3156    5.4707 H         1 <1>         0.0000
     57 H24        -3.2046    1.5297    5.6523 H         1 <1>         0.0000
     58 H25        -4.7056    0.5883    5.7876 H         1 <1>         0.0000
     59 H26        -3.2164    4.5592   -3.3391 H         1 <1>         0.0000
     60 H27        -2.3598    3.4693   -4.4832 H         1 <1>         0.0000
     61 H28        -1.4529    5.4586   -5.6724 H         1 <1>         0.0000
     62 H29        -2.2864    6.5277   -4.5507 H         1 <1>         0.0000
     63 H30        -3.2325    5.4924   -5.6470 H         1 <1>         0.0000
@<TRIPOS>BOND
     1    1    2 ar
     2    1    6 ar
     3    6    5 ar
     4    5    4 ar
     5    4    3 ar
     6    2    3 ar
     7    7    8 2
     8    7   12 1
     9   12   11 am
    10   11   10 1
    11    9   10 2
    12    8    9 1
    13    1    7 1
    14   11   13 2
    15   10   14 1
    16   14   15 1
    17   15   16 2
    18    9   16 1
    19   14   17 1
    20   16   18 1
    21   18   19 1
    22   19   20 1
    23   21   22 2
    24   21   23 2
    25   21   24 1
    26    5   21 1
    27   24   25 1
    28   25   26 1
    29   26   27 1
    30   27   28 1
    31   28   29 1
    32   24   29 1
    33   27   30 1
    34    3   31 1
    35   31   32 1
    36   32   33 1
    37    2   34 1
    38    4   35 1
    39    6   36 1
    40   12   37 1
    41   17   38 1
    42   17   39 1
    43   17   40 1
    44   18   41 1
    45   18   42 1
    46   19   43 1
    47   19   44 1
    48   20   45 1
    49   20   46 1
    50   20   47 1
    51   25   48 1
    52   25   49 1
    53   26   50 1
    54   26   51 1
    55   28   52 1
    56   28   53 1
    57   29   54 1
    58   29   55 1
    59   30   56 1
    60   30   57 1
    61   30   58 1
    62   32   59 1
    63   32   60 1
    64   33   61 1
    65   33   62 1
    66   33   63 1
@<TRIPOS>SUBSTRUCTURE
     1 ****        1 TEMP              0 ****  ****    0 ROOT
@<TRIPOS>NORMAL
@<TRIPOS>ALT_TYPE
MMFF94_ALT_TYPE_SET
MMFF94 1 CB 2 CB 3 CB 4 CB 5 CB 6 CB 7 C=N 8 N=C 9 C5B 10 C5A 11 C=ON \
12 NC=O 13 O=CN 14 NPYL 15 N5A 16 C5B 17 CR 18 CR 19 CR \
20 CR 21 SO2N 22 O2S 23 O2S 24 NSO2 25 CR 26 CR 27 NR \
28 CR 29 CR 30 CR 31 OC=C 32 CR 33 CR 34 HC 35 HC 36 HC \
37 HNCN 38 HC 39 HC 40 HC 41 HC 42 HC 43 HC 44 HC 45 HC \
46 HC 47 HC 48 HC 49 HC 50 HC 51 HC 52 HC 53 HC 54 HC \
55 HC 56 HC 57 HC 58 HC 59 HC 60 HC 61 HC 62 HC 63 HC \

@<TRIPOS>FF_PBC
FORCE_FIELD_SETUP_FEATURE Force Field Setup information
v1.0  0 0.000000 0.000000 0.000000 0.000000 0.000000 0.000000 NONE 0 0 0 0 1 0 0 0 0 0 0 0 0


