@<TRIPOS>MOLECULE
  Viagra (sildenafil)                                       Tot. E =     18.4089
65 74
SMALL
USER_CHARGES


@<TRIPOS>ATOM
   1   X      0.00000    0.00000    0.00000 Du       1      <1>    0.00000
   2   X      1.00000    0.00000    0.00000 Du       1      <1>    0.00000
   3   C6     1.00000    1.00000    0.00000 C.3      1      <1>   -0.00495
   4   C5     1.68465   -0.21760    0.03239 C.3      1      <1>   -0.47259
   5   C1    -0.39677    1.00000    0.00000 C.3      1      <1>   -0.05001
   6   H3     1.55514    1.93703   -0.01939 H        1      <1>    0.21064
   7   S21    3.45941   -0.19812    0.06157 S.2      1      <1>    1.65508
   8   C4     0.99900   -1.43691    0.04423 C.3      1      <1>   -0.11183
   9   N24    3.79582    0.66771    1.49132 N.3      1      <1>   -1.45383
  10   O22    3.88904    0.59402   -1.06942 O.3      1      <1>   -0.53839
  11   O23    3.92435   -1.55588    0.25215 O.3      1      <1>   -0.59138
  12   C25    3.40483   -0.02622    2.76041 C.3      1      <1>    0.26646
  13   C29    5.22554    1.11136    1.57798 C.3      1      <1>    0.25613
  14   C26    3.62961    0.90745    3.96729 C.3      1      <1>    0.01558
  15   H15    3.99327   -0.94300    2.88486 H        1      <1>    0.12750
  16   H16    2.34464   -0.29547    2.72859 H        1      <1>    0.11981
  17   N27    5.03159    1.35955    4.06752 N.3      1      <1>   -0.60229
  18   H17    3.35511    0.36194    4.87808 H        1      <1>    0.12097
  19   H18    2.95490    1.77009    3.88297 H        1      <1>    0.08619
  20   C28    5.42892    2.02055    2.80640 C.3      1      <1>    0.01666
  21   C30    5.20353    2.26669    5.20082 C.3      1      <1>   -0.05412
  22   H19    6.48890    2.29667    2.85653 H        1      <1>    0.12341
  23   H20    4.85314    2.94519    2.66451 H        1      <1>    0.08913
  24   H21    5.88404    0.23665    1.64214 H        1      <1>    0.11626
  25   H22    5.49026    1.68328    0.68232 H        1      <1>    0.14368
  26   H23    4.94184    1.76278    6.13781 H        1      <1>    0.10390
  27   H24    4.58639    3.16785    5.10977 H        1      <1>    0.06410
  28   H25    6.25137    2.57393    5.29050 H        1      <1>    0.10506
  29   C3    -0.39369   -1.43603    0.02118 C.3      1      <1>    0.12566
  30   H2     1.56697   -2.36212    0.06387 H        1      <1>    0.19854
  31   C2    -1.08716   -0.21941    0.00000 C.3      1      <1>   -0.11675
  32   O31   -1.19730   -2.54237    0.01991 O.3      1      <1>   -0.32439
  33   H1    -2.17240   -0.25153   -0.05302 H        1      <1>    0.18256
  34   C7    -1.11378    2.30595   -0.01931 C.2      1      <1>    0.42122
  35   N12   -2.35394    2.32934    0.61475 N.3      1      <1>   -0.99525
  36   N8    -0.55475    3.33521   -0.59128 N.2      1      <1>   -0.28474
  37   C11   -3.13913    3.45685    0.71524 C.2      1      <1>    0.67870
  38   H4    -2.71916    1.52188    1.09527 H        1      <1>    0.53483
  39   C10   -2.54110    4.56661    0.07145 C.2      1      <1>   -0.11507
  40   O13   -4.21213    3.45824    1.30679 O.2      1      <1>   -0.46277
  41   N14   -2.96294    5.84868   -0.09147 N.3      1      <1>   -0.21943
  42   C9    -1.32557    4.49703   -0.53916 C.2      1      <1>   -0.02255
  43   C17   -4.19972    6.42311    0.38057 C.3      1      <1>   -0.03628
  44   N15   -2.08170    6.61449   -0.78130 N.2      1      <1>   -0.05687
  45   H5    -4.25247    7.47287    0.08037 H        1      <1>    0.13694
  46   H6    -4.22186    6.34817    1.47043 H        1      <1>    0.12334
  47   H7    -5.03021    5.86930   -0.06396 H        1      <1>    0.12412
  48   C16   -1.06732    5.77404   -1.06243 C.2      1      <1>   -0.06403
  49   C18    0.11957    6.23597   -1.83477 C.3      1      <1>   -0.10680
  50   C19   -0.01573    5.93996   -3.32911 C.3      1      <1>   -0.18250
  51   H8     1.01970    5.74800   -1.44065 H        1      <1>    0.12298
  52   H9     0.26021    7.31369   -1.68297 H        1      <1>    0.11486
  53   C20    1.20135    6.41695   -4.10519 C.3      1      <1>   -0.25127
  54   H10   -0.91267    6.42856   -3.72919 H        1      <1>    0.09812
  55   H11   -0.14442    4.86258   -3.48971 H        1      <1>    0.10708
  56   H12    1.08283    6.19412   -5.17023 H        1      <1>    0.08802
  57   H13    2.11058    5.91916   -3.75315 H        1      <1>    0.09007
  58   H14    1.33666    7.49786   -3.99740 H        1      <1>    0.08353
  59   C32   -0.55661   -3.81579   -0.06749 C.3      1      <1>    0.00622
  60   C33   -1.63829   -4.87939   -0.12440 C.3      1      <1>   -0.26329
  61   H26    0.06751   -3.98592    0.81717 H        1      <1>    0.09820
  62   H27    0.05276   -3.87520   -0.97675 H        1      <1>    0.10225
  63   H28   -2.28701   -4.72324   -0.99273 H        1      <1>    0.10621
  64   H29   -2.27689   -4.82782    0.76365 H        1      <1>    0.10468
  65   H30   -1.19959   -5.87922   -0.18652 H        1      <1>    0.11267
@<TRIPOS>BOND
   1    1    2    1
   2    1    3    1
   3    1    5    1
   4    1   29    1
   5    1   31    1
   6    2    3    1
   7    2    4    1
   8    2    8    1
   9    3    4    1
  10    3    5    1
  11    3    6    1
  12    4    7    1
  13    4    8    1
  14    5   31    1
  15    5   34    1
  16    7    9    1
  17    7   10    2
  18    7   11    2
  19    8   29    1
  20    8   30    1
  21    9   12    1
  22    9   13    1
  23   12   14    1
  24   12   15    1
  25   12   16    1
  26   13   20    1
  27   13   24    1
  28   13   25    1
  29   14   17    1
  30   14   18    1
  31   14   19    1
  32   17   20    1
  33   17   21    1
  34   20   22    1
  35   20   23    1
  36   21   26    1
  37   21   27    1
  38   21   28    1
  39   29   31    1
  40   29   32    1
  41   31   33    1
  42   32   59    1
  43   34   35    1
  44   34   36    2
  45   35   37    1
  46   35   38    1
  47   36   42    2
  48   37   39    2
  49   37   40    2
  50   39   41    1
  51   39   42    2
  52   41   43    1
  53   41   44    1
  54   42   48    2
  55   43   45    1
  56   43   46    1
  57   43   47    1
  58   44   48    2
  59   48   49    1
  60   49   50    1
  61   49   51    1
  62   49   52    1
  63   50   53    1
  64   50   54    1
  65   50   55    1
  66   53   56    1
  67   53   57    1
  68   53   58    1
  69   59   60    1
  70   59   61    1
  71   59   62    1
  72   60   63    1
  73   60   64    1
  74   60   65    1
