@<TRIPOS>MOLECULE
PNU-0096403
   40    42     1     0     0
SMALL
GAST_HUCK


@<TRIPOS>ATOM
      1 C1                         0.0000    0.0000    0.0000 C.ar      1 <1>        0.0062
      2 C2                         0.0000    0.0000    1.4000 C.ar      1 <1>       -0.0323
      3 C3                         1.2205    0.0000    2.0874 C.ar      1 <1>       -0.0089
      4 C4                         2.4131    0.0000    1.3541 C.ar      1 <1>       -0.0323
      5 C5                         2.3454    0.0000   -0.0443 C.ar      1 <1>        0.0062
      6 N6                         1.1605    0.0000   -0.6700 N.ar      1 <1>       -0.3031
      7 C7                         1.2491    0.0000    3.5671 C.ar      1 <1>        0.0110
      8 C8                         0.3340   -0.7793    4.2849 C.ar      1 <1>       -0.0644
      9 C9                         0.3610   -0.7793    5.6846 C.ar      1 <1>       -0.0406
     10 C10                        1.3032    0.0000    6.3666 C.ar      1 <1>        0.0736
     11 C11                        2.2183    0.7793    5.6487 C.ar      1 <1>       -0.0035
     12 C12                        2.1912    0.7793    4.2490 C.ar      1 <1>        0.1326
     13 C13                        0.0305    4.9547   11.8084 C.3       1 <1>        0.0256
     14 F14                        3.0736    1.5308    3.5568 F         1 <1>       -0.1835
     15 N15                        1.3305    0.0000    7.7813 N.am      1 <1>       -0.1904
     16 C16                        2.0421   -0.8304    8.5382 C.2       1 <1>        0.3550
     17 O17                        1.8824   -0.6097    9.8605 O.3       1 <1>       -0.2506
     18 C18                        0.9752    0.4761   10.0682 C.3       1 <1>        0.1340
     19 C19                        0.5770    0.9178    8.6477 C.3       1 <1>        0.0911
     20 O20                        2.7649   -1.7021    8.0843 O.2       1 <1>       -0.3659
     21 N21                        0.6652    2.7177   11.0020 N.am      1 <1>       -0.2843
     22 C22                        1.0165    3.8213   11.6560 C.2       1 <1>        0.1730
     23 O23                        2.1445    3.9185   12.1366 O.2       1 <1>       -0.3974
     24 C24                        1.6251    1.6143   10.8536 C.3       1 <1>        0.0638
     25 H25                       -0.9353    0.0000   -0.5400 H         1 <1>        0.0809
     26 H26                       -0.9326    0.0000    1.9446 H         1 <1>        0.0684
     27 H27                        3.3682    0.0000    1.8582 H         1 <1>        0.0684
     28 H28                        3.2566    0.0000   -0.6240 H         1 <1>        0.0809
     29 H29                       -0.3449   -1.3805    6.2384 H         1 <1>        0.0484
     30 H30                       -0.3928   -1.3805    3.7588 H         1 <1>        0.0596
     31 H31                        2.9450    1.3805    6.1748 H         1 <1>        0.0497
     32 H32                       -0.4951    0.8222    8.4889 H         1 <1>        0.0619
     33 H33                        0.8532    1.9538    8.4628 H         1 <1>        0.0619
     34 H34                        0.1097    0.1718   10.6531 H         1 <1>        0.0694
     35 H35                        2.5043    1.9678   10.3192 H         1 <1>        0.0550
     36 H36                        1.9189    1.2545   11.8374 H         1 <1>        0.0550
     37 H37                       -0.2610    2.6378   10.6073 H         1 <1>        0.1851
     38 H38                        0.4933    5.7652   12.3676 H         1 <1>        0.0467
     39 H39                       -0.2633    5.3145   10.8246 H         1 <1>        0.0467
     40 H40                       -0.8487    4.6011   12.3428 H         1 <1>        0.0467
@<TRIPOS>BOND
     1    1    2 ar
     2    1    6 ar
     3    1   25 1 
     4    2    3 ar
     5    2   26 1 
     6    3    4 ar
     7    3    7 1 
     8    4    5 ar
     9    4   27 1 
    10    5    6 ar
    11    5   28 1 
    12    7    8 ar
    13    7   12 ar
    14    8    9 ar
    15    8   30 1 
    16    9   10 ar
    17    9   29 1 
    18   10   11 ar
    19   10   15 1 
    20   11   12 ar
    21   11   31 1 
    22   12   14 1 
    23   13   22 1 
    24   13   38 1 
    25   13   39 1 
    26   13   40 1 
    27   15   16 am
    28   15   19 1 
    29   16   17 1 
    30   16   20 2 
    31   17   18 1 
    32   18   19 1 
    33   18   24 1 
    34   18   34 1 
    35   19   32 1 
    36   19   33 1 
    37   21   22 am
    38   21   24 1 
    39   21   37 1 
    40   22   23 2 
    41   24   35 1 
    42   24   36 1 
@<TRIPOS>SUBSTRUCTURE
     1 ****        1 TEMP              0 ****  ****    0 ROOT

@<TRIPOS>MOLECULE
PNU-0100766
   44    46     1     0     0
SMALL
GAST_HUCK


@<TRIPOS>ATOM
      1 C1                         0.0000    0.0000    0.0000 C.3       1 <1>        0.0667
      2 C2                         0.0000    0.0000    1.5400 C.3       1 <1>        0.0468
      3 N3                         0.8530   -1.0622    2.0923 N.pl3     1 <1>       -0.3122
      4 C4                         2.1595   -1.2071    1.4343 C.3       1 <1>        0.0468
      5 C5                         2.0649   -1.1543   -0.1019 C.3       1 <1>        0.0667
      6 O6                         1.3319    0.0000   -0.5206 O.3       1 <1>       -0.3760
      7 C7                         0.7291   -1.4936    4.4885 C.ar      1 <1>       -0.0582
      8 C8                         0.3285   -2.3039    5.5576 C.ar      1 <1>       -0.0558
      9 C9                        -0.3531   -3.5017    5.3111 C.ar      1 <1>        0.0566
     10 C10                       -0.6341   -3.8892    3.9955 C.ar      1 <1>       -0.0183
     11 C11                       -0.2335   -3.0789    2.9264 C.ar      1 <1>        0.1365
     12 C12                        0.4481   -1.8811    3.1729 C.ar      1 <1>        0.0600
     13 F13                       -0.5045   -3.4526    1.6577 F         1 <1>       -0.1963
     14 N14                       -0.7580   -4.3206    6.3917 N.am      1 <1>       -0.2003
     15 C15                       -1.9238   -4.2381    7.0264 C.2       1 <1>        0.3495
     16 O16                       -2.7726   -3.4454    6.7450 O.2       1 <1>       -0.3683
     17 O17                       -2.0499   -5.1419    8.0213 O.3       1 <1>       -0.2516
     18 C18                        0.0432   -5.3976    6.9909 C.3       1 <1>        0.0873
     19 C19                       -0.8683   -5.9429    8.1060 C.3       1 <1>        0.1331
     20 C20                       -1.1753   -7.4270    7.9109 C.3       1 <1>        0.0637
     21 N21                        0.0754   -8.1974    7.9656 N.am      1 <1>       -0.2843
     22 C22                        0.0492   -9.5191    7.8193 C.2       1 <1>        0.1730
     23 O23                       -1.0215  -10.0967    7.6382 O.2       1 <1>       -0.3974
     24 C24                        1.3340  -10.3105    7.8755 C.3       1 <1>        0.0256
     25 H25                       -0.5307   -0.8783   -0.3615 H         1 <1>        0.0579
     26 H26                       -0.5307    0.8783   -0.3615 H         1 <1>        0.0579
     27 H27                        0.3463    0.9656    1.9027 H         1 <1>        0.0529
     28 H28                       -1.0176   -0.1296    1.9027 H         1 <1>        0.0529
     29 H29                        2.8270   -0.4212    1.7814 H         1 <1>        0.0529
     30 H30                        2.6120   -2.1496    1.7353 H         1 <1>        0.0529
     31 H31                        1.5674   -2.0510   -0.4657 H         1 <1>        0.0579
     32 H32                        3.0663   -1.1211   -0.5260 H         1 <1>        0.0579
     33 H33                        0.5453   -2.0050    6.5725 H         1 <1>        0.0439
     34 H34                        1.2549   -0.5696    4.6787 H         1 <1>        0.0469
     35 H35                       -1.1599   -4.8132    3.8053 H         1 <1>        0.0457
     36 H36                        0.9793   -5.0175    7.3947 H         1 <1>        0.0610
     37 H37                        0.2804   -6.1684    6.2606 H         1 <1>        0.0610
     38 H38                       -0.3985   -5.8659    9.0843 H         1 <1>        0.0693
     39 H39                       -1.6504   -7.5749    6.9434 H         1 <1>        0.0550
     40 H40                       -1.8446   -7.7655    8.6991 H         1 <1>        0.0550
     41 H41                        0.9546   -7.7231    8.1144 H         1 <1>        0.1851
     42 H42                        1.1153  -11.3672    7.7366 H         1 <1>        0.0467
     43 H43                        2.0032   -9.9720    7.0873 H         1 <1>        0.0467
     44 H44                        1.8090  -10.1626    8.8430 H         1 <1>        0.0467
@<TRIPOS>BOND
     1    1    2 1 
     2    1    6 1 
     3    1   25 1 
     4    1   26 1 
     5    2    3 1 
     6    2   27 1 
     7    2   28 1 
     8    3    4 1 
     9    3   12 1 
    10    4    5 1 
    11    4   29 1 
    12    4   30 1 
    13    5    6 1 
    14    5   31 1 
    15    5   32 1 
    16    7    8 ar
    17    7   12 ar
    18    7   34 1 
    19    8    9 ar
    20    8   33 1 
    21    9   10 ar
    22    9   14 1 
    23   10   11 ar
    24   10   35 1 
    25   11   12 ar
    26   11   13 1 
    27   14   15 am
    28   14   18 1 
    29   15   16 2 
    30   15   17 1 
    31   17   19 1 
    32   18   19 1 
    33   18   36 1 
    34   18   37 1 
    35   19   20 1 
    36   19   38 1 
    37   20   21 1 
    38   20   39 1 
    39   20   40 1 
    40   21   22 am
    41   21   41 1 
    42   22   23 2 
    43   22   24 1 
    44   24   42 1 
    45   24   43 1 
    46   24   44 1 
@<TRIPOS>SUBSTRUCTURE
     1 ****        1 TEMP              0 ****  ****    0 ROOT

@<TRIPOS>MOLECULE
PNU-0105368
   39    41     1     0     0
SMALL
GAST_HUCK


@<TRIPOS>ATOM
      1 C1                         0.0000    0.0000    0.0000 C.3       1 <1>        0.0667
      2 C2                         0.0000    0.0000    1.5400 C.3       1 <1>        0.0468
      3 N3                         0.8530   -1.0622    2.0923 N.pl3     1 <1>       -0.3122
      4 C4                         2.1595   -1.2071    1.4343 C.3       1 <1>        0.0468
      5 C5                         2.0649   -1.1543   -0.1019 C.3       1 <1>        0.0667
      6 O6                         1.3319    0.0000   -0.5206 O.3       1 <1>       -0.3760
      7 C7                         0.7291   -1.4936    4.4885 C.ar      1 <1>       -0.0582
      8 C8                         0.3285   -2.3039    5.5576 C.ar      1 <1>       -0.0558
      9 C9                        -0.3531   -3.5017    5.3111 C.ar      1 <1>        0.0566
     10 C10                       -0.6341   -3.8892    3.9955 C.ar      1 <1>       -0.0183
     11 C11                       -0.2335   -3.0789    2.9264 C.ar      1 <1>        0.1365
     12 C12                        0.4481   -1.8811    3.1729 C.ar      1 <1>        0.0600
     13 F13                       -0.5045   -3.4526    1.6577 F         1 <1>       -0.1963
     14 N14                       -0.7580   -4.3206    6.3917 N.am      1 <1>       -0.2004
     15 C15                       -1.9238   -4.2381    7.0264 C.2       1 <1>        0.3495
     16 O16                       -2.7726   -3.4454    6.7450 O.2       1 <1>       -0.3683
     17 O17                       -2.0499   -5.1419    8.0213 O.3       1 <1>       -0.2524
     18 C18                        0.0432   -5.3976    6.9909 C.3       1 <1>        0.0866
     19 C19                       -0.8683   -5.9429    8.1060 C.3       1 <1>        0.1254
     20 C20                       -1.1753   -7.4270    7.9109 C.3       1 <1>        0.0263
     21 N21                        0.0754   -8.1974    7.9656 N.3       1 <1>       -0.3273
     22 H22                       -0.5307   -0.8783   -0.3615 H         1 <1>        0.0579
     23 H23                       -0.5307    0.8783   -0.3615 H         1 <1>        0.0579
     24 H24                        0.3463    0.9656    1.9027 H         1 <1>        0.0529
     25 H25                       -1.0176   -0.1296    1.9027 H         1 <1>        0.0529
     26 H26                        2.8270   -0.4212    1.7814 H         1 <1>        0.0529
     27 H27                        2.6120   -2.1496    1.7353 H         1 <1>        0.0529
     28 H28                        1.5674   -2.0510   -0.4657 H         1 <1>        0.0579
     29 H29                        3.0663   -1.1211   -0.5260 H         1 <1>        0.0579
     30 H30                        0.5453   -2.0050    6.5725 H         1 <1>        0.0439
     31 H31                        1.2549   -0.5696    4.6787 H         1 <1>        0.0469
     32 H32                       -1.1599   -4.8132    3.8053 H         1 <1>        0.0457
     33 H33                        0.9793   -5.0175    7.3947 H         1 <1>        0.0609
     34 H34                        0.2804   -6.1684    6.2606 H         1 <1>        0.0609
     35 H35                       -0.3985   -5.8659    9.0843 H         1 <1>        0.0685
     36 H36                       -1.6504   -7.5749    6.9434 H         1 <1>        0.0451
     37 H37                       -1.8446   -7.7655    8.6991 H         1 <1>        0.0451
     38 H38                       -0.1276   -9.1784    7.8367 H         1 <1>        0.1183
     39 H39                        0.5164   -8.0601    8.8638 H         1 <1>        0.1183
@<TRIPOS>BOND
     1    1    2 1 
     2    1    6 1 
     3    1   22 1 
     4    1   23 1 
     5    2    3 1 
     6    2   24 1 
     7    2   25 1 
     8    3    4 1 
     9    3   12 1 
    10    4    5 1 
    11    4   26 1 
    12    4   27 1 
    13    5    6 1 
    14    5   28 1 
    15    5   29 1 
    16    7    8 ar
    17    7   12 ar
    18    7   31 1 
    19    8    9 ar
    20    8   30 1 
    21    9   10 ar
    22    9   14 1 
    23   10   11 ar
    24   10   32 1 
    25   11   12 ar
    26   11   13 1 
    27   14   15 am
    28   14   18 1 
    29   15   16 2 
    30   15   17 1 
    31   17   19 1 
    32   18   19 1 
    33   18   33 1 
    34   18   34 1 
    35   19   20 1 
    36   19   35 1 
    37   20   21 1 
    38   20   36 1 
    39   20   37 1 
    40   21   38 1 
    41   21   39 1 
@<TRIPOS>SUBSTRUCTURE
     1 ****        1 TEMP              0 ****  ****    0 ROOT

@<TRIPOS>MOLECULE
PNU-0108187
   50    52     1     0     0
SMALL
GAST_HUCK


@<TRIPOS>ATOM
      1 O1                         0.0000    0.0000    0.0000 O.3       1 <1>       -0.2516
      2 C2                         1.6750   -1.2124    3.9376 C.ar      1 <1>       -0.0183
      3 C3                         1.5256    0.0000    3.2538 C.ar      1 <1>        0.0566
      4 C4                         1.9739   -1.2124    5.3054 C.ar      1 <1>        0.1365
      5 C5                         0.0000    0.0000    1.3500 C.2       1 <1>        0.3495
      6 C6                         2.2123    0.0000    0.7836 C.3       1 <1>        0.0873
      7 N7                         3.0296    1.1897   -1.8061 N.am      1 <1>       -0.2843
      8 C8                         1.3440    0.0000   -0.4883 C.3       1 <1>        0.1331
      9 C9                         4.9425    2.1296   -3.0369 C.3       1 <1>        0.0256
     10 O10                       -1.0178    0.0000    2.0226 O.2       1 <1>       -0.3683
     11 O11                        2.7650    3.0778   -2.9388 O.2       1 <1>       -0.3974
     12 C12                        3.5018    2.1584   -2.5856 C.2       1 <1>        0.1730
     13 F13                        2.1180   -2.3816    5.9648 F         1 <1>       -0.1962
     14 N14                        1.2235    0.0000    1.8714 N.am      1 <1>       -0.2003
     15 C15                        2.1233    0.0000    5.9892 C.ar      1 <1>        0.0600
     16 C16                        1.9739    1.2124    5.3054 C.ar      1 <1>       -0.0582
     17 C17                        1.6750    1.2124    3.9376 C.ar      1 <1>       -0.0558
     18 N18                        2.4254    0.0000    7.3716 N.pl3     1 <1>       -0.3127
     19 C19                        4.0273   -1.1011    8.9215 C.3       1 <1>        0.0529
     20 C20                        3.8093    0.0000    7.8672 C.3       1 <1>        0.0438
     21 C21                        1.3742    0.0000    8.3994 C.3       1 <1>        0.0438
     22 C22                        1.6092   -1.1026    9.4484 C.3       1 <1>        0.0529
     23 N23                        2.9872   -1.1075    9.9604 N.am      1 <1>       -0.2698
     24 C24                        1.6271    1.2178   -1.3668 C.3       1 <1>        0.0637
     25 O25                        4.4421   -1.1207   11.6339 O.2       1 <1>       -0.3972
     26 C26                        3.2704   -1.1169   11.2598 C.2       1 <1>        0.1755
     27 C27                        2.1534   -1.1231   12.2759 C.3       1 <1>        0.0258
     28 H28                        2.8502   -0.8802    0.8279 H         1 <1>        0.0610
     29 H29                        2.8502    0.8802    0.8279 H         1 <1>        0.0610
     30 H30                        1.5456   -0.8671   -1.1139 H         1 <1>        0.0693
     31 H31                        1.4435    2.1264   -0.7972 H         1 <1>        0.0550
     32 H32                        0.9740    1.1970   -2.2368 H         1 <1>        0.0550
     33 H33                        1.5598    2.1477    3.4101 H         1 <1>        0.0439
     34 H34                        2.0891    2.1477    5.8329 H         1 <1>        0.0469
     35 H35                        1.5598   -2.1477    3.4101 H         1 <1>        0.0457
     36 H36                        3.6346    0.4348   -1.5161 H         1 <1>        0.1851
     37 H37                        4.0379    0.9696    8.3046 H         1 <1>        0.0526
     38 H38                        4.4925   -0.1560    7.0350 H         1 <1>        0.0526
     39 H39                        4.0515   -2.0714    8.4298 H         1 <1>        0.0541
     40 H40                        5.0012   -0.9665    9.3873 H         1 <1>        0.0541
     41 H41                        1.3840   -2.0723    9.0094 H         1 <1>        0.0541
     42 H42                        0.9171   -0.9661   10.2767 H         1 <1>        0.0541
     43 H43                        1.3503    0.9699    8.8918 H         1 <1>        0.0526
     44 H44                        0.4061   -0.1502    7.9260 H         1 <1>        0.0526
     45 H45                        5.1440    2.9967   -3.6624 H         1 <1>        0.0467
     46 H46                        5.5956    2.1504   -2.1669 H         1 <1>        0.0467
     47 H47                        5.1260    1.2210   -3.6065 H         1 <1>        0.0467
     48 H48                        2.5754   -1.1305   13.2787 H         1 <1>        0.0467
     49 H49                        1.5408   -0.2332   12.1468 H         1 <1>        0.0467
     50 H50                        1.5392   -2.0099   12.1343 H         1 <1>        0.0467
@<TRIPOS>BOND
     1    1    5 1 
     2    1    8 1 
     3    2    3 ar
     4    2    4 ar
     5    2   35 1 
     6    3   14 1 
     7    3   17 ar
     8    4   13 1 
     9    4   15 ar
    10    5   10 2 
    11    5   14 am
    12    6    8 1 
    13    6   14 1 
    14    6   28 1 
    15    6   29 1 
    16    7   12 am
    17    7   24 1 
    18    7   36 1 
    19    8   24 1 
    20    8   30 1 
    21    9   12 1 
    22    9   45 1 
    23    9   46 1 
    24    9   47 1 
    25   11   12 2 
    26   15   16 ar
    27   15   18 1 
    28   16   17 ar
    29   16   34 1 
    30   17   33 1 
    31   18   20 1 
    32   18   21 1 
    33   19   20 1 
    34   19   23 1 
    35   19   39 1 
    36   19   40 1 
    37   20   37 1 
    38   20   38 1 
    39   21   22 1 
    40   21   43 1 
    41   21   44 1 
    42   22   23 1 
    43   22   41 1 
    44   22   42 1 
    45   23   26 am
    46   24   31 1 
    47   24   32 1 
    48   25   26 2 
    49   26   27 1 
    50   27   48 1 
    51   27   49 1 
    52   27   50 1 
@<TRIPOS>SUBSTRUCTURE
     1 ****        1 TEMP              0 ****  ****    0 ROOT

@<TRIPOS>MOLECULE
PNU-0140641
   41    43     1     0     0
SMALL
GAST_HUCK


@<TRIPOS>ATOM
      1 C1                         0.0000    0.0000    0.0000 C.ar      1 <1>       -0.0397
      2 C2                         0.0000    0.0000    1.4000 C.ar      1 <1>       -0.0473
      3 C3                         1.2124    0.0000    2.1000 C.ar      1 <1>        0.0640
      4 C4                         2.4249    0.0000    1.4000 C.ar      1 <1>       -0.0099
      5 C5                         2.4249    0.0000    0.0000 C.ar      1 <1>        0.1555
      6 C6                         1.2124    0.0000   -0.7000 C.ar      1 <1>        0.1173
      7 N7                         1.2124    0.0000   -2.1150 N.pl3     1 <1>       -0.2405
      8 N8                         1.2124    0.0000    3.5150 N.am      1 <1>       -0.1961
      9 C9                         1.8849   -0.3136   -4.1958 C.2       1 <1>       -0.0673
     10 C10                        2.2242   -0.4718   -2.9092 C.2       1 <1>        0.0308
     11 C11                        0.2007    0.4718   -2.9092 C.2       1 <1>        0.0503
     12 C12                        0.5436    0.3119   -4.1946 C.2       1 <1>        0.0088
     13 C13                        1.2124   -1.0840    4.2856 C.2       1 <1>        0.3518
     14 O14                        1.2124   -0.7959    5.6044 O.3       1 <1>       -0.2512
     15 C15                        1.2124    0.6214    5.7946 C.3       1 <1>        0.1335
     16 C16                        1.2124    1.1981    4.3667 C.3       1 <1>        0.0889
     17 O17                        4.2902    2.5327    7.8853 O.2       1 <1>       -0.3974
     18 C18                        3.3708    3.1772    7.3829 C.2       1 <1>        0.1730
     19 C19                        3.3420    4.6810    7.5162 C.3       1 <1>        0.0256
     20 O20                        1.2124   -2.2220    3.8457 O.2       1 <1>       -0.3673
     21 C21                        2.4302    1.0855    6.5924 C.3       1 <1>        0.0638
     22 N22                        2.4021    2.5495    6.7222 N.am      1 <1>       -0.2843
     23 F23                        3.5940    0.0000   -0.6750 F         1 <1>       -0.1887
     24 C24                       -0.2603    0.6868   -5.3794 C.2       1 <1>        0.0996
     25 O25                        0.1784    0.4822   -6.5101 O.2       1 <1>       -0.3789
     26 H26                       -0.9353    0.0000    1.9400 H         1 <1>        0.0458
     27 H27                       -0.9353    0.0000   -0.5400 H         1 <1>        0.0545
     28 H28                        3.3602    0.0000    1.9400 H         1 <1>        0.0475
     29 H29                        3.1487   -0.9029   -2.5544 H         1 <1>        0.0815
     30 H30                        2.4722   -0.5874   -5.0599 H         1 <1>        0.0307
     31 H31                       -0.7243    0.9031   -2.5560 H         1 <1>        0.0916
     32 H32                        0.3322    1.8119    4.1872 H         1 <1>        0.0614
     33 H33                        2.0927    1.8119    4.1872 H         1 <1>        0.0614
     34 H34                        0.3453    0.9518    6.3627 H         1 <1>        0.0693
     35 H35                       -1.2322    1.1400   -5.2511 H         1 <1>        0.1269
     36 H36                        3.3388    0.7846    6.0751 H         1 <1>        0.0550
     37 H37                        2.4094    0.6332    7.5818 H         1 <1>        0.0550
     38 H38                        1.6472    3.0786    6.3097 H         1 <1>        0.1851
     39 H39                        4.2091    5.0114    8.0843 H         1 <1>        0.0467
     40 H40                        3.3628    5.1333    6.5269 H         1 <1>        0.0467
     41 H41                        2.4334    4.9819    8.0335 H         1 <1>        0.0467
@<TRIPOS>BOND
     1    1    2 ar
     2    1    6 ar
     3    1   27 1 
     4    2    3 ar
     5    2   26 1 
     6    3    4 ar
     7    3    8 1 
     8    4    5 ar
     9    4   28 1 
    10    5    6 ar
    11    5   23 1 
    12    6    7 1 
    13    7   10 1 
    14    7   11 1 
    15    8   13 am
    16    8   16 1 
    17    9   10 2 
    18    9   12 1 
    19    9   30 1 
    20   10   29 1 
    21   11   12 2 
    22   11   31 1 
    23   12   24 1 
    24   13   14 1 
    25   13   20 2 
    26   14   15 1 
    27   15   16 1 
    28   15   21 1 
    29   15   34 1 
    30   16   32 1 
    31   16   33 1 
    32   17   18 2 
    33   18   19 1 
    34   18   22 am
    35   19   39 1 
    36   19   40 1 
    37   19   41 1 
    38   21   22 1 
    39   21   36 1 
    40   21   37 1 
    41   22   38 1 
    42   24   25 2 
    43   24   35 1 
@<TRIPOS>SUBSTRUCTURE
     1 ****        1 TEMP              0 ****  ****    0 ROOT

